version 2
run Test1-0-20181204-17:20:51-16808
attr configname Test1
attr datetime 20181204-17:20:51
attr experiment Test1
attr inifile omnetpp.ini
attr iterationvars "$X=40, $Y=6"
attr iterationvarsf X=40,Y=6-
attr measurement "$X=40, $Y=6"
attr network Floor
attr processid 16808
attr repetition 0
attr replication #0
attr resultdir results
attr runnumber 0
attr seedset 0
itervar X 40
itervar Y 6
param Floor.sizeX 40
param Floor.sizeY 6
param Floor.selectionCriterionStarterNode 3
param Floor.slotTime 100ms
param Floor.radius 14
param Floor.PosX uniform(0,40)
param Floor.PosY uniform(0,6)
param Floor.P 0.1
param Floor.numberOfNodes 4
param Floor.slotTime 100ms

statistic Floor detectionCollisionStat:stats
field count 0
field mean nan
field stddev nan
field min nan
field max nan
field sum 0
field sqrsum 0
attr "" ""
attr source count(detectionOfCollision)
attr title "Number of Collisions for each slot, stats"
statistic Floor collisionOfNotInfectedStat:stats
field count 0
field mean nan
field stddev nan
field min nan
field max nan
field sum 0
field sqrsum 0
attr "" ""
attr source CollisionsOfNotInfectedNode
attr title "Number of Collisions of NOT infected node, stats"
statistic Floor collisionOfInfectedStat:stats
field count 3
field mean 0
field stddev 0
field min 0
field max 0
field sum 0
field sqrsum 0
attr "" ""
attr source CollisionsOfInfectedNode
attr title "Number of Collisions of infected node, stats"
statistic Floor SlotTimeStat:stats
field count 3
field mean 16
field stddev 14.525839046334
field min 1
field max 30
field sum 48
field sqrsum 1190
attr "" ""
attr source SlotCountToTransmit
attr title "Slot count before receiving message, stats"
scalar Floor hopCountStat:count 3
attr "" ""
attr source Infection
attr title "Hop count, count"
scalar Floor hopCountStat:mean 2
attr "" ""
attr source Infection
attr title "Hop count, mean"
scalar Floor hopCountStat:max 3
attr "" ""
attr source Infection
attr title "Hop count, max"

